src/test/resources/com/farao_community/farao/flow_decomposition/NETWORK_WITH_OUTSIDE_CORE_COUNTRIES_LOOP_FLOW.uct
##C 2007.05.01
This is a test network with only two branches.
Each branch is linking a generator with a  central load.
Used to validate losses compensation algorithm.
##N
##ZGB
5GEN  11 GEN          0 3 400.00 0.00000 0.00000 -100.00 0.00000 1000.00 -1000.0 1000.00 -1000.0
5LOAD 11 LOAD         0 0        100.000 0.00000 0.00000 0.00000
##ZFR
FGEN  11 GEN          0 2 400.00 0.00000 0.00000 -100.00 0.00000 1000.00 -1000.0 1000.00 -1000.0
FLOAD 11 LOAD         0 0        100.000 0.00000 0.00000 0.00000
##ZBE
BGEN  11 GEN          0 2 400.00 0.00000 0.00000 -100.00 0.00000 1000.00 -1000.0 1000.00 -1000.0
BLOAD 11 LOAD         0 0        100.000 0.00000 0.00000 0.00000
##L
5GEN  11 FGEN  11 1 0 1.0000 0.0500 0.000000    480 LINE
FGEN  11 BGEN  11 1 0 1.0000 0.0500 0.000000    480 LINE
BGEN  11 BLOAD 11 1 0 1.0000 0.0500 0.000000    480 LINE
BLOAD 11 FLOAD 11 1 0 1.0000 0.0500 0.000000    480 LINE
FLOAD 11 5LOAD 11 1 0 1.0000 0.0500 0.000000    480 LINE
